@<TRIPOS>MOLECULE
mol_4477_opt_s1_exe.mol2
    31 0 0 0
SMALL
GASTEIGER
@<TRIPOS>ATOM
   1 H       0.6094   -0.3694    1.4156 H1   1 S1_EXE   1.829024
   2 H      -0.1382    0.2980    1.3067 H1   1 S1_EXE   0.436004
   3 H       1.2840    0.2382    1.1978 H1   1 S1_EXE   2.325395
   4 H      -0.0469   -0.8440    1.0889 H1   1 S1_EXE   0.683910
   5 H       0.2527    1.0748    0.9800 H1   1 S1_EXE   1.315908
   6 H       1.4202   -0.7009    0.8711 H1   1 S1_EXE   2.358267
   7 H       1.3350    0.9892    0.6533 H1   1 S1_EXE   2.340572
   8 H       0.4940   -1.3652    0.5444 H1   1 S1_EXE   1.685387
   9 H       1.8958   -0.0958    0.3267 H1   1 S1_EXE   2.207244
  10 H       0.6912    1.4485    0.1089 H1   1 S1_EXE   1.919449
  11 H       1.2802   -1.2238    0.0000 H1   1 S1_EXE   2.324142
  12 H       1.7418    0.6966   -0.2178 H1   1 S1_EXE   2.317827
  13 H       0.0020   -1.3561   -0.3267 H1   1 S1_EXE   0.804365
  14 H      -0.0966    1.2864   -0.4356 H1   1 S1_EXE   0.552954
  15 H       1.7142   -0.5531   -0.5444 H1   1 S1_EXE   2.329758
  16 H       1.0734    1.1003   -0.7622 H1   1 S1_EXE   2.229180
  17 H       0.7439   -1.1510   -0.8711 H1   1 S1_EXE   1.972870
  18 H       1.4423    0.1471   -1.0889 H1   1 S1_EXE   2.361221
  19 H      -0.0698   -0.6628   -1.1978 H1   1 S1_EXE   0.624709
  20 H       0.4241    0.6721   -1.3067 H1   1 S1_EXE   1.588538
  21 H       0.7511   -0.2751   -1.4156 H1   1 S1_EXE   1.979938
  22 H      -1.0605    0.2935    1.0000 H1   1 S1_EXE  -2.903388
  23 H      -0.9588   -0.8118    0.7333 H1   1 S1_EXE  -2.599779
  24 H      -0.6678    1.0194    0.6000 H1   1 S1_EXE  -1.613389
  25 H      -1.6117   -0.1245    0.3333 H1   1 S1_EXE  -4.327365
  26 H      -0.4409   -1.1979    0.0667 H1   1 S1_EXE  -0.698818
  27 H      -1.2931    0.8666   -0.0667 H1   1 S1_EXE  -3.538066
  28 H      -1.3658   -0.7201   -0.3333 H1   1 S1_EXE  -3.723786
  29 H      -1.3879    0.2276   -0.7333 H1   1 S1_EXE  -3.779173
  30 H      -0.6803   -0.6276   -1.0000 H1   1 S1_EXE  -1.659828
  31 H      -0.6237    0.3614   -1.1333 H1   1 S1_EXE  -1.446261
