@<TRIPOS>MOLECULE
mol_4477_opt_s2_exe.mol2
    31 0 0 0
SMALL
GASTEIGER
@<TRIPOS>ATOM
   1 H       0.6094   -0.3694    1.4156 H1   1 S2_EXE   3.005639
   2 H      -0.1382    0.2980    1.3067 H1   1 S2_EXE   1.567109
   3 H       1.2840    0.2382    1.1978 H1   1 S2_EXE   2.998970
   4 H      -0.0469   -0.8440    1.0889 H1   1 S2_EXE   1.863751
   5 H       0.2527    1.0748    0.9800 H1   1 S2_EXE   2.574406
   6 H       1.4202   -0.7009    0.8711 H1   1 S2_EXE   2.901963
   7 H       1.3350    0.9892    0.6533 H1   1 S2_EXE   2.966195
   8 H       0.4940   -1.3652    0.5444 H1   1 S2_EXE   2.907932
   9 H       1.8958   -0.0958    0.3267 H1   1 S2_EXE   2.252293
  10 H       0.6912    1.4485    0.1089 H1   1 S2_EXE   3.053966
  11 H       1.2802   -1.2238    0.0000 H1   1 S2_EXE   3.001229
  12 H       1.7418    0.6966   -0.2178 H1   1 S2_EXE   2.531966
  13 H       0.0020   -1.3561   -0.3267 H1   1 S2_EXE   2.005979
  14 H      -0.0966    1.2864   -0.4356 H1   1 S2_EXE   1.707506
  15 H       1.7142   -0.5531   -0.5444 H1   1 S2_EXE   2.573397
  16 H       1.0734    1.1003   -0.7622 H1   1 S2_EXE   3.089890
  17 H       0.7439   -1.1510   -0.8711 H1   1 S2_EXE   3.076627
  18 H       1.4423    0.1471   -1.0889 H1   1 S2_EXE   2.883238
  19 H      -0.0698   -0.6628   -1.1978 H1   1 S2_EXE   1.793283
  20 H       0.4241    0.6721   -1.3067 H1   1 S2_EXE   2.830327
  21 H       0.7511   -0.2751   -1.4156 H1   1 S2_EXE   3.079252
  22 H      -1.0605    0.2935    1.0000 H1   1 S2_EXE  -2.577819
  23 H      -0.9588   -0.8118    0.7333 H1   1 S2_EXE  -2.205514
  24 H      -0.6678    1.0194    0.6000 H1   1 S2_EXE  -0.982843
  25 H      -1.6117   -0.1245    0.3333 H1   1 S2_EXE  -4.302093
  26 H      -0.4409   -1.1979    0.0667 H1   1 S2_EXE   0.180961
  27 H      -1.2931    0.8666   -0.0667 H1   1 S2_EXE  -3.351244
  28 H      -1.3658   -0.7201   -0.3333 H1   1 S2_EXE  -3.576211
  29 H      -1.3879    0.2276   -0.7333 H1   1 S2_EXE  -3.643166
  30 H      -0.6803   -0.6276   -1.0000 H1   1 S2_EXE  -1.040997
  31 H      -0.6237    0.3614   -1.1333 H1   1 S2_EXE  -0.772922
